21
 energy: -26.004325394350 gnorm: 0.000505615644 xtb: 6.7.1 (b14f90e)
C           -2.02403635680020        1.37521553954750       -0.16043454042976
N           -1.44654238644846        0.05757433858202       -0.09814816735197
C           -2.35809875448622       -1.04724525352209        0.09832322481946
C           -0.13832883797023       -0.17669286599504        0.03634192078716
O            0.31217973796438       -1.31461302591533        0.12972356010696
H           -1.99695499174709        1.87476562551175        0.81229874661462
H           -3.06917476824297        1.28263245237799       -0.44992043600216
H           -1.51454477545758        1.99796062841731       -0.89420652192535
H           -2.79735343102302       -1.02503136228804        1.09848197695847
H           -1.81243558282925       -1.98375907413967       -0.01934098568487
H           -3.16184755178838       -0.98763450887946       -0.63447880465019
C            0.79385378351422        1.03809500417898        0.02766983707233
H            0.40970049008738        1.80197921168836        0.70454994989113
H            0.76041411027302        1.42966069660352       -0.99442311035866
C            2.21177345912319        0.64863523442349        0.40918633640990
H            2.26429764545707        0.39488282477149        1.47148907542821
H            2.85166143995298        1.53233657380990        0.27547840517441
C            2.74758609212927       -0.47985895285565       -0.42395874009350
H            2.01501761192144       -1.31770880256227       -0.29503727050248
H            3.71500978952932       -0.83826844473142       -0.08288262742461
H            2.76413088504104       -0.26030539642368       -1.49042058803914
