12
 energy: -24.081190726991 gnorm: 0.000881973132 xtb: 6.7.1 (b14f90e)
C           -1.16459648895399        1.15190826441684       -0.00080993573809
C            0.07551171081024        1.74448815375396       -0.00019057967709
N            1.18683153171021        1.01364067207424        0.00012802186628
C            1.19361572115264       -0.39808721948681        0.00050476086202
O            2.20852011506271       -1.02433028706761        0.00116003659351
N           -0.05992807124005       -0.96604261937592       -0.00022173183902
C           -1.27733737688741       -0.31257533450214       -0.00116421122815
O           -2.32213793527922       -0.91104498694629       -0.00132899640130
H           -2.08324671917914        1.72123533816076       -0.00029680064443
H            0.17585984959474        2.82510935132479       -0.00039951440639
H            2.11063101620590        1.44858651806729        0.00042271668643
H           -0.08638642169662       -1.98754016931910        0.00011008612624
