15
 energy: -27.432768564386 gnorm: 0.000449843825 xtb: 6.7.1 (b14f90e)
C            2.64679657936944        2.71957989367225       -0.04263092904551
N            3.43393915743696        1.60654800610178       -0.05069881171977
C            4.71910288647536        2.03310569055200       -0.03695510490006
N            5.87301707201102        1.40258685977846       -0.03618947752325
C            6.98822455530273        2.09305325267609       -0.01980428677640
N            6.99493991487283        3.40535188037602       -0.00283951445652
C            5.89115793437996        4.15085783678412       -0.00137439433187
C            4.64354342946192        3.45736577825946       -0.01965465514137
N            3.35404681999163        3.81035524068147       -0.02420596262803
N            5.96870157785556        5.47101827835500        0.01690552463214
H            1.57468105649978        2.69241594468173       -0.05042615852777
H            7.92850418201486        1.56487817985322       -0.01919693700571
H            6.87256079941364        5.91984302217939        0.02725645460028
H            5.13197241975184        6.03363779712880        0.01656969928080
H            3.12868161516245        0.64223233892019       -0.06511544645695
