26
 energy: -25.834970855172 gnorm: 0.000833773585 xtb: 6.7.1 (b14f90e)
C            4.14580381544480        0.16724494711280        0.19424366049254
H            4.64330142257726       -0.71786293510228       -0.20633396452822
H            4.75362900403492        1.01885730806762       -0.11040793502465
H            4.14656684552861        0.09010336571903        1.27916006316461
C            2.74564021863293        0.30457337750162       -0.34768872036571
H            2.32181620713232        1.26966437664415       -0.02510564139424
C            1.77983289103480       -0.76676161081688        0.16014031990632
H            2.76404807824864        0.33107058073236       -1.44090472002329
H            1.78806919853792       -0.80263297786127        1.25138614587457
H            2.15966940939130       -1.73057052950675       -0.19824252580423
C            0.36962009174354       -0.56836280525510       -0.35167311721218
H            0.37606365870190       -0.41028608897331       -1.43276978254846
C           -0.36952622031586        0.56815065993882        0.35182072176929
H           -0.21457850755561       -1.48104837896053       -0.16186198638581
H            0.21418873766760        1.48184310277867        0.16283697046498
H           -0.37630957652238        0.40993136294216        1.43291165161736
C           -1.77973043559107        0.76673879582694       -0.16002425390356
H           -2.15960485800733        1.73042065113992        0.19862520314375
C           -2.74567610734412       -0.30462787874670        0.34745666088173
H           -1.78789797970705        0.80298942351987       -1.25121538064116
H           -2.76445871763097       -0.33115696248690        1.44065074223174
H           -2.32170241133635       -1.26966747574903        0.02500038362467
C           -4.14565015663981       -0.16738426987293       -0.19491105818061
H           -4.14603201172457       -0.09023868770464       -1.27981430182467
H           -4.64334797518223        0.71767625505797        0.20547728670894
H           -4.75352907151925       -1.01903414954561        0.10952365745636
