16
 energy: -19.369232670115 gnorm: 0.000669483358 xtb: 6.7.1 (b14f90e)
C           -2.29452594561026       -0.27027891497642       -0.04193426626683
C           -0.85845610615037        0.13279359808984        0.03165103986709
H            2.24312714215364        0.52532962763881        1.24253351309506
H            2.96290481093853        0.83450148505818       -0.37352861277930
H            1.31273149643046        1.35101154989473        0.00128243630650
H           -2.93069701495653        0.60319700414159        0.08999704642205
H           -2.47802729348870       -0.69189066657826       -1.03255461787058
H           -2.52733404536560       -1.03522118087630        0.69552909735491
C            0.10075638364796       -1.03743354460114        0.25099901309598
H            1.40773690958367       -0.71627351723982       -1.44459436987629
O           -0.47780664274390        1.26292508288685       -0.05752588496775
C            1.46002690020121       -0.72653682179879       -0.35198379793316
H            0.16132116043781       -1.13496011732913        1.34133393854867
H           -0.32363083476877       -1.95686692915588       -0.15085656228616
C            2.06640172392256        0.54035757585793        0.16769806262185
H            2.11832859556835       -1.57067118661215       -0.09155265293202
