14
 energy: -20.278406121653 gnorm: 0.000032826653 xtb: 6.7.1 (b14f90e)
C            2.04465780240000        0.57903439480000       -0.15624146020000
C            1.48495166520000       -0.70997450700000        0.34484527430000
C            0.14087441530000       -1.04268136900000       -0.26843114430000
C           -0.85279196070000        0.10077073190000       -0.02759872760000
O           -0.49292849740000        1.25579721380000        0.05708489590000
O           -2.07069815990000       -0.31836621070000        0.04792988740000
H            1.20684027870000        1.32943652030000       -0.01119531600000
H            2.21976973650000        0.60385690330000       -1.23260427540000
H            2.90740923870000        0.93449636860000        0.40154802350000
H            1.43481822200000       -0.72701828600000        1.43895908760000
H            2.18286042900000       -1.52491216160000        0.08319393340000
H           -0.29354462060000       -1.96194288330000        0.12581523070000
H            0.20142736930000       -1.13169462720000       -1.35901845110000
H           -2.74215095430000        0.38181052840000        0.16646550480000
