15
 energy: -17.222056551263 gnorm: 0.000828571785 xtb: 6.7.1 (b14f90e)
C            1.24757205044654        0.48690314295469        0.26956885964668
C            1.42744291734357       -0.95411479878016       -0.08280790054523
C            0.02550479354436        1.12585588213124       -0.37417351601969
C           -1.22105924477358        0.44428884500359        0.25994119734912
O           -1.29676490052598       -0.90238561619977       -0.01422430695229
H           -1.46299214424206       -1.07746298888852       -0.95517939684144
H           -1.20605183946776        0.54937646453435        1.34797494069819
H           -2.09182455571841        0.98181929594219       -0.14839513274674
H           -0.02194414434365        2.19320624559066       -0.16763409466128
H            0.01584277968637        0.97270525272534       -1.45433682083942
H            1.24963066994349        0.63599123961567        1.35276167378876
H            2.11200943034007        1.05648826801207       -0.11282790441375
H            1.58780425201994       -1.11587903649892       -1.14819133922331
H            2.20352095334805       -1.43945923458596        0.50666155360953
H            0.47693237309924       -1.48365142485638        0.16834711265098
