18
 energy: -18.438846181414 gnorm: 0.000835684607 xtb: 6.7.1 (b14f90e)
C            1.05433943088373       -0.06781660538461        0.38220627884857
C            1.71622547394107        0.91244490613144       -0.54872320196884
H            1.67862708470021        1.92833700892337       -0.16336790886182
H            1.28504304444220        0.88378822311924       -1.54982879365490
H            2.76836880209733        0.64737529631783       -0.68093092341654
C           -0.34462055169691        0.43338223646638        0.92222590819519
C           -1.28909467042799        0.52717788419703       -0.20998199670608
H           -0.17749551746222        1.41727215878395        1.36230821375737
H           -0.71617229425795       -0.24581965137100        1.68913649508360
C           -2.36563590836037       -0.25122547405706       -0.35383960156734
C            0.99806790783390       -1.47855118066276       -0.14728241366156
H            1.61844230840680       -0.07512834173963        1.33196635864026
H            0.39166606425840       -2.12362354202720        0.48376657230977
H            2.00711965473915       -1.89881214983210       -0.15944237682592
H            0.63533324968687       -1.52614638088218       -1.17219820277610
H           -1.06401098821595        1.30297249341973       -0.93547521281758
H           -2.52169198610048       -1.14870261136883        0.22894684054481
H           -3.15798535766775        0.00271966366645       -1.04291608682272
