20
 energy: -25.828796692025 gnorm: 0.000688914538 xtb: 6.7.1 (b14f90e)
C           -0.90705890248510       -1.61773077240716       -1.47117240022441
P           -1.00137453102552       -0.54269291268026       -0.00045703858223
S           -2.47136273409209        0.77019885486510       -0.00183266706368
C           -0.90813925447507       -1.61568579217632        1.47183413567552
P            1.00135340151949        0.54270288676370       -0.00054241945685
S            2.47134263208172       -0.77019056526526       -0.00213751227152
C            0.90690599954504        1.61781981315226       -1.47119442277907
C            0.90828497408509        1.61558961677766        1.47183396276231
H           -1.00928113112747       -1.01958750427760       -2.37655540664596
H           -1.73341943706015       -2.32925999626257       -1.43004247780451
H            0.03999307451141       -2.15803054796025       -1.48147127520519
H            0.03956233027677       -2.15478123501826        1.48446677618059
H           -1.73349079732689       -2.32835129089056        1.43020010351005
H           -1.01273543128515       -1.01647916097636        2.37623235801533
H            1.73301018609450        2.32963567426231       -1.42988791612622
H           -0.04032963369436        2.15779323509438       -1.48161046287517
H            1.00948255652599        1.01976342182195       -2.37659418220211
H            1.73399993511561        2.32785542497189        1.43048133007639
H            1.01237801313026        1.01623166097908        2.37619283413228
H           -0.03915826041404        2.15514032892638        1.48430786438448
