24
 energy: -41.675819295432 gnorm: 0.000060525270 xtb: 6.7.1 (b14f90e)
N            1.27838883090000        1.05998257340000       -0.00007003920000
C            1.82815544800000       -0.20087569280000        0.00024000050000
N            0.92240643230000       -1.31578936280000        0.00002956710000
C           -0.07082403360000        1.40482284310000       -0.00006061720000
C           -0.92407315670000        0.22235419470000        0.00021082090000
C           -0.38408380760000       -1.09324301680000        0.00003828740000
N           -2.25469803730000        0.07026753790000        0.00004367790000
C           -2.48532220250000       -1.29451700530000       -0.00012840030000
N           -1.39773095160000       -1.99938649310000       -0.00021459380000
C            1.48198912330000       -2.63224004770000       -0.00026065710000
O            3.00534578500000       -0.41177177720000        0.00040371020000
O           -0.46581725650000        2.54346620820000       -0.00037835940000
C           -3.25393840190000        1.09408805180000        0.00035433350000
C            2.25372154420000        2.14836446640000       -0.00016173910000
H           -3.47249833260000       -1.71587961180000       -0.00016396150000
H            2.12495175350000       -2.76042744510000       -0.87600513590000
H            0.67532186380000       -3.36160013160000        0.00091154210000
H            2.12710108360000       -2.75974939370000        0.87395706460000
H           -3.89135959310000        0.99355981130000       -0.88087550290000
H           -2.77433759030000        2.07236956650000       -0.00311612840000
H           -3.88655135660000        0.99782646580000        0.88559864030000
H            2.88620566340000        2.07541852360000       -0.88362385920000
H            2.88284144020000        2.07875226050000        0.88598537110000
H            1.71201081000000        3.09057480870000       -0.00289779110000
