10
 energy: -16.643310619545 gnorm: 0.000341189349 xtb: 6.7.1 (b14f90e)
Al           0.24821580784877       -0.18357926704436       -0.00101457159888
Cl           2.21866051517428        0.14487993538006       -0.00036033088195
Cl          -1.22948366322172       -1.52746199481677       -0.00043215667482
C           -0.64795332062148        1.82957594571427        0.00016901935108
H           -0.18134949094133        2.22280020809819       -0.90617026574408
H           -0.18118235365712        2.22247689452737        0.90656235940457
C           -2.12475575883189        1.84129091329745        0.00029756773013
H           -2.44732052424880        2.89482907536537        0.00027095662333
H           -2.55628371301475        1.39767668472499        0.89699622053417
H           -2.55643809698596        1.39765666195342       -0.89632157154353
