17
 energy: -23.445410128311 gnorm: 0.000057173263 xtb: 6.7.1 (b14f90e)
C            0.41012623450000       -0.02914157690000       -0.08935065230000
O            0.16725705920000        1.16118085010000       -0.03558904490000
O            1.56892253570000       -0.58323823840000       -0.00256285340000
C           -0.70650446540000       -1.06803146820000       -0.29653864590000
C           -1.97299171840000       -0.60342050780000        0.39310547860000
H           -0.34984174200000       -2.03146321220000        0.06773351850000
H           -0.83837283090000       -1.13072220180000       -1.38185713760000
C           -2.43414740640000        0.73212812830000       -0.09260191070000
H           -1.85630940040000       -0.61527548350000        1.48145162190000
H           -2.75722063070000       -1.34925068720000        0.17811426250000
H           -2.68878120470000        0.75518636080000       -1.15240831740000
H           -1.52104982560000        1.39649236480000       -0.01985000630000
H           -3.21563058990000        1.17776077950000        0.51742972690000
C            2.73750065770000        0.24149328070000        0.12358737770000
H            3.55102850850000       -0.44552641430000        0.34625129030000
H            2.61155765900000        0.96778077480000        0.92725806550000
H            2.93289602630000        0.76380965640000       -0.81373941350000
